.SUBCKT OPAMP1 3 2 6
R1 3 0 10MEG
R2 3 2 2MEG
R3 2 0 10MEG
E1 4 0 3 2 2E5
R 4 5 1K
C 5 0 32UF
E2 10 0 5 0 1V
R0 10 6 75
.ENDS